Version 4
SHEET 1 880 680
WIRE 624 -112 144 -112
WIRE 144 -64 144 -112
WIRE 144 -64 64 -64
WIRE 208 -64 144 -64
WIRE 624 0 624 -112
WIRE 208 64 208 16
WIRE 304 64 208 64
WIRE 400 64 368 64
WIRE 208 96 208 64
WIRE -352 144 -464 144
WIRE -112 144 -272 144
WIRE 64 144 64 16
WIRE 64 144 -48 144
WIRE 144 144 64 144
WIRE -464 224 -464 144
WIRE 64 272 64 144
WIRE 208 272 208 192
WIRE 400 272 400 64
WIRE -464 352 -464 304
WIRE 64 352 -464 352
WIRE 208 352 64 352
WIRE 400 352 208 352
WIRE 624 352 624 80
WIRE 624 352 400 352
WIRE 64 448 64 352
FLAG 64 448 0
SYMBOL npn 144 96 R0
SYMATTR InstName Q1
SYMBOL res 192 -80 R0
SYMATTR InstName R1
SYMATTR Value 10k
SYMBOL res 192 256 R0
SYMATTR InstName R2
SYMATTR Value 1.5k
SYMBOL res 384 256 R0
SYMATTR InstName R3
SYMATTR Value 1k
SYMBOL res 48 256 R0
SYMATTR InstName R4
SYMATTR Value 10k
SYMBOL res 48 -80 R0
SYMATTR InstName R5
SYMATTR Value 50k
SYMBOL res -256 128 R90
WINDOW 0 0 56 VBottom 2
WINDOW 3 32 56 VTop 2
SYMATTR InstName R6
SYMATTR Value 10k
SYMBOL cap -48 128 R90
WINDOW 0 0 32 VBottom 2
WINDOW 3 32 32 VTop 2
SYMATTR InstName C1
SYMATTR Value 10µ
SYMBOL cap 368 48 R90
WINDOW 0 0 32 VBottom 2
WINDOW 3 32 32 VTop 2
SYMATTR InstName C2
SYMATTR Value 10µ
SYMBOL voltage 624 -16 R0
WINDOW 123 0 0 Left 0
WINDOW 39 0 0 Left 0
SYMATTR InstName V1
SYMATTR Value -20v
SYMBOL voltage -464 208 R0
WINDOW 123 0 0 Left 0
WINDOW 39 0 0 Left 0
SYMATTR InstName V2
SYMATTR Value SINE(0 20m 20k)
TEXT -496 472 Left 2 !.tran 0.3m
